test_clean.raw
0, 100.00, 33, 0, 0, 60.00     / PSS/E-33 RAW
Case Identification Data
Bus Data Section
1, 'BUS001  ', 138.0000, 1, 1, 1, 1, 1.0000, 0.0000
2, 'BUS002  ', 138.0000, 1, 1, 1, 1, 1.0000, 0.0000
3, 'BUS003  ', 138.0000, 1, 1, 1, 1, 1.0000, 0.0000
0 / END OF BUS DATA
Branch Data Section
1, 2, '1 ', 0.00100, 0.01000, 0.00000, 100.0, 100.0, 100.0
2, 3, '1 ', 0.00200, 0.02000, 0.00000, 100.0, 100.0, 100.0
3, 1, '1 ', 0.00300, 0.03000, 0.00000, 100.0, 100.0, 100.0
0 / END OF BRANCH DATA
